
No compatibility mode selected!


Circuit: ** sch_path: /home/exotic/desktop/asic_adc/xschem/vth_sch/pre_layout/analog_bench.sch

Doing analysis at TEMP = 27.000000 and TNOM = 27.000000

Warning: vin: no DC value, transient time 0 value used

No. of Data Rows : 181
.save: no such command available in ngspice
binary raw file "/home/exotic/.xschem/simulations/Analog_bench.raw"
Doing analysis at TEMP = 27.000000 and TNOM = 27.000000

Warning: vin: no DC value, transient time 0 value used
No. of Data Columns : 1796  

No. of Data Rows : 181

Total analysis time (seconds) = 23.802

Total elapsed time (seconds) = 660.946 

Total DRAM available = 1928.250 MB.
DRAM currently available =   75.855 MB.
Maximum ngspice program size =  682.848 MB.
Current ngspice program size =  666.215 MB.

Shared ngspice pages =    9.578 MB.
Text (code) pages =    5.316 MB.
Stack = 0 bytes.
Library pages =  664.898 MB.

